* 
* ======================================== 
* PSpice-simulation Model for NTC products 
* ======================================== 
* 
* TDK, DEUTSCHLANDSBERG    
* 
* "NTC_Library.LIB" Version Oct, 2022 Dr. Lesch 
* 
* 
* 
* Basic Model: 
* ============ 
* 
* 
.subckt NTC 1 2 Params:B0=1, B1=1, B2=1, B3=0, B4=0, R25=10,  
+ CTH=1, GTH0=1, GTH1=1, T=1, 
+ TK = 273.15 
***************************************************************** 
* 
Gthem 1 4  Value={V(1,4)/(R25*T*(exp((((B4/(V(3)+TK+TEMP)+B3)/(V(3)+TK+TEMP)+B2)/(V(3)+TK+TEMP)+B1)/(V(3)+TK+TEMP)+B0)))}  
* 
RP 1 4 1T 
RS 4 2 1n 
* 
Gtmp1 0 3  Value={V(1,4)*V(1,4)/(R25*T*(exp((((B4/(V(3)+TK+TEMP)+B3)/(V(3)+TK+TEMP)+B2)/(V(3)+TK+TEMP)+B1)/(V(3)+TK+TEMP)+B0)))} 
C_par 3 0 {CTH} 
R_par 3 0 1T 
Gpar  3 0 Value={V(3)*(GTH0+(GTH1*(V(3)+TEMP)))}  
* 
.ends 
*  
***************************************************************** 
* 
* 
* 
* 
* 
*
*
* Model for B57221V2103A160 : 
* --------------------------
.SUBCKT B57221V2103A160 1 2  PARAMS: TOL=0
X1 1 2 NTC Params: 
+ B0=-14.5737
+ B1=4734.87
+ B2=-99567.95
+ B3=-5091275.72
+ B4=40082796.5
+ R25=10000
+ T={1+TOL/100} 
+ CTH=0.0075 GTH0=0.0025 GTH1=0 TK=273.15 
.ENDS 
*$
*
*
* Model for B57221V2103J060 : 
* --------------------------
.SUBCKT B57221V2103J060 1 2  PARAMS: TOL=0
X1 1 2 NTC Params: 
+ B0=-14.5737
+ B1=4734.87
+ B2=-99567.95
+ B3=-5091275.72
+ B4=40082796.5
+ R25=10000
+ T={1+TOL/100} 
+ CTH=0.0075 GTH0=0.0025 GTH1=0 TK=273.15 
.ENDS 
*$
*
*
* Model for B57221V2472J060 : 
* --------------------------
.SUBCKT B57221V2472J060 1 2  PARAMS: TOL=0
X1 1 2 NTC Params: 
+ B0=-14.5737
+ B1=4734.87
+ B2=-99567.95
+ B3=-5091275.72
+ B4=40082796.5
+ R25=4700
+ T={1+TOL/100} 
+ CTH=0.0075 GTH0=0.0025 GTH1=0 TK=273.15 
.ENDS 
*$
*
*
* Model for B57221V2473J060 : 
* --------------------------
.SUBCKT B57221V2473J060 1 2  PARAMS: TOL=0
X1 1 2 NTC Params: 
+ B0=-14.5737
+ B1=4734.87
+ B2=-99567.95
+ B3=-5091275.72
+ B4=40082796.5
+ R25=47000
+ T={1+TOL/100} 
+ CTH=0.0075 GTH0=0.0025 GTH1=0 TK=273.15 
.ENDS 
*$
*
*
* Model for B57230V2103D260 : 
* --------------------------
.SUBCKT B57230V2103D260 1 2  PARAMS: TOL=0
X1 1 2 NTC Params: 
+ B0=-12.8079
+ B1=4132.2998
+ B2=-34296.8469
+ B3=-20044636.74
+ B4=712784745.8
+ R25=10000
+ T={1+TOL/100} 
+ CTH=0.0075 GTH0=0.0025 GTH1=0 TK=273.15 
.ENDS 
*$
*
*
* Model for B57230V2103F260 : 
* --------------------------
.SUBCKT B57230V2103F260 1 2  PARAMS: TOL=0
X1 1 2 NTC Params: 
+ B0=-12.8079
+ B1=4132.2998
+ B2=-34296.8469
+ B3=-20044636.74
+ B4=712784745.8
+ R25=10000
+ T={1+TOL/100} 
+ CTH=0.0075 GTH0=0.0025 GTH1=0 TK=273.15 
.ENDS 
*$
*
*
* Model for B57230V2103H260 : 
* --------------------------
.SUBCKT B57230V2103H260 1 2  PARAMS: TOL=0
X1 1 2 NTC Params: 
+ B0=-12.8079
+ B1=4132.2998
+ B2=-34296.8469
+ B3=-20044636.74
+ B4=712784745.8
+ R25=10000
+ T={1+TOL/100} 
+ CTH=0.0075 GTH0=0.0025 GTH1=0 TK=273.15 
.ENDS 
*$
*
*
* Model for B57230V2103J260 : 
* --------------------------
.SUBCKT B57230V2103J260 1 2  PARAMS: TOL=0
X1 1 2 NTC Params: 
+ B0=-12.8079
+ B1=4132.2998
+ B2=-34296.8469
+ B3=-20044636.74
+ B4=712784745.8
+ R25=10000
+ T={1+TOL/100} 
+ CTH=0.0075 GTH0=0.0025 GTH1=0 TK=273.15 
.ENDS 
*$
*
*
* Model for B57232V5103A160 : 
* --------------------------
.SUBCKT B57232V5103A160 1 2  PARAMS: TOL=0
X1 1 2 NTC Params: 
+ B0=-12.8079
+ B1=4132.2998
+ B2=-34296.8469
+ B3=-20044636.74
+ B4=712784745.8
+ R25=10000
+ T={1+TOL/100} 
+ CTH=0.0075 GTH0=0.0025 GTH1=0 TK=273.15 
.ENDS 
*$
*
*
* Model for B57232V5103D360 : 
* --------------------------
.SUBCKT B57232V5103D360 1 2  PARAMS: TOL=0
X1 1 2 NTC Params: 
+ B0=-12.8079
+ B1=4132.2998
+ B2=-34296.8469
+ B3=-20044636.74
+ B4=712784745.8
+ R25=10000
+ T={1+TOL/100} 
+ CTH=0.0075 GTH0=0.0025 GTH1=0 TK=273.15 
.ENDS 
*$
*
*
* Model for B57232V5103F360 : 
* --------------------------
.SUBCKT B57232V5103F360 1 2  PARAMS: TOL=0
X1 1 2 NTC Params: 
+ B0=-12.8079
+ B1=4132.2998
+ B2=-34296.8469
+ B3=-20044636.74
+ B4=712784745.8
+ R25=10000
+ T={1+TOL/100} 
+ CTH=0.0075 GTH0=0.0025 GTH1=0 TK=273.15 
.ENDS 
*$
*
*
* Model for B57232V5103H360 : 
* --------------------------
.SUBCKT B57232V5103H360 1 2  PARAMS: TOL=0
X1 1 2 NTC Params: 
+ B0=-12.8079
+ B1=4132.2998
+ B2=-34296.8469
+ B3=-20044636.74
+ B4=712784745.8
+ R25=10000
+ T={1+TOL/100} 
+ CTH=0.0075 GTH0=0.0025 GTH1=0 TK=273.15 
.ENDS 
*$
*
*
* Model for B57232V5103J360 : 
* --------------------------
.SUBCKT B57232V5103J360 1 2  PARAMS: TOL=0
X1 1 2 NTC Params: 
+ B0=-12.8079
+ B1=4132.2998
+ B2=-34296.8469
+ B3=-20044636.74
+ B4=712784745.8
+ R25=10000
+ T={1+TOL/100} 
+ CTH=0.0075 GTH0=0.0025 GTH1=0 TK=273.15 
.ENDS 
*$
*
*
* Model for B57232V5103J370 : 
* --------------------------
.SUBCKT B57232V5103J370 1 2  PARAMS: TOL=0
X1 1 2 NTC Params: 
+ B0=-12.8079
+ B1=4132.2998
+ B2=-34296.8469
+ B3=-20044636.74
+ B4=712784745.8
+ R25=10000
+ T={1+TOL/100} 
+ CTH=0.0075 GTH0=0.0025 GTH1=0 TK=273.15 
.ENDS 
*$
*
*
* Model for B57250V2104F360 : 
* --------------------------
.SUBCKT B57250V2104F360 1 2  PARAMS: TOL=0
X1 1 2 NTC Params: 
+ B0=-4.9914
+ B1=5625.2304
+ B2=-171800.28
+ B3=-21443156
+ B4=2994421810
+ R25=100000
+ T={1+TOL/100} 
+ CTH=0.0075 GTH0=0.0025 GTH1=0 TK=273.15 
.ENDS 
*$
*
*
* Model for B57250V2104H360 : 
* --------------------------
.SUBCKT B57250V2104H360 1 2  PARAMS: TOL=0
X1 1 2 NTC Params: 
+ B0=-4.9914
+ B1=5625.2304
+ B2=-171800.28
+ B3=-21443156
+ B4=2994421810
+ R25=100000
+ T={1+TOL/100} 
+ CTH=0.0075 GTH0=0.0025 GTH1=0 TK=273.15 
.ENDS 
*$
*
*
* Model for B57250V2104J360 : 
* --------------------------
.SUBCKT B57250V2104J360 1 2  PARAMS: TOL=0
X1 1 2 NTC Params: 
+ B0=-4.9914
+ B1=5625.2304
+ B2=-171800.28
+ B3=-21443156
+ B4=2994421810
+ R25=100000
+ T={1+TOL/100} 
+ CTH=0.0075 GTH0=0.0025 GTH1=0 TK=273.15 
.ENDS 
*$
*
*
* Model for B57251V5103J060 : 
* --------------------------
.SUBCKT B57251V5103J060 1 2  PARAMS: TOL=0
X1 1 2 NTC Params: 
+ B0=-14.5737
+ B1=4734.87
+ B2=-99567.95
+ B3=-5091275.72
+ B4=40082796.5
+ R25=10000
+ T={1+TOL/100} 
+ CTH=0.0075 GTH0=0.0025 GTH1=0 TK=273.15 
.ENDS 
*$
*
*
* Model for B57251V5472J060 : 
* --------------------------
.SUBCKT B57251V5472J060 1 2  PARAMS: TOL=0
X1 1 2 NTC Params: 
+ B0=-14.5737
+ B1=4734.87
+ B2=-99567.95
+ B3=-5091275.72
+ B4=40082796.5
+ R25=4700
+ T={1+TOL/100} 
+ CTH=0.0075 GTH0=0.0025 GTH1=0 TK=273.15 
.ENDS 
*$
*
*
* Model for B57254V5104F360 : 
* --------------------------
.SUBCKT B57254V5104F360 1 2  PARAMS: TOL=0
X1 1 2 NTC Params: 
+ B0=-4.9914
+ B1=5625.2304
+ B2=-171800.28
+ B3=-21443156
+ B4=2994421810
+ R25=100000
+ T={1+TOL/100} 
+ CTH=0.0075 GTH0=0.0025 GTH1=0 TK=273.15 
.ENDS 
*$
*
*
* Model for B57254V5104H360 : 
* --------------------------
.SUBCKT B57254V5104H360 1 2  PARAMS: TOL=0
X1 1 2 NTC Params: 
+ B0=-4.9914
+ B1=5625.2304
+ B2=-171800.28
+ B3=-21443156
+ B4=2994421810
+ R25=100000
+ T={1+TOL/100} 
+ CTH=0.0075 GTH0=0.0025 GTH1=0 TK=273.15 
.ENDS 
*$
*
*
* Model for B57254V5104J360 : 
* --------------------------
.SUBCKT B57254V5104J360 1 2  PARAMS: TOL=0
X1 1 2 NTC Params: 
+ B0=-4.9914
+ B1=5625.2304
+ B2=-171800.28
+ B3=-21443156
+ B4=2994421810
+ R25=100000
+ T={1+TOL/100} 
+ CTH=0.0075 GTH0=0.0025 GTH1=0 TK=273.15 
.ENDS 
*$
*
*
* Model for B57259V5473F360 : 
* --------------------------
.SUBCKT B57259V5473F360 1 2  PARAMS: TOL=0
X1 1 2 NTC Params: 
+ B0=-14.4948
+ B1=3773.1104
+ B2=569785.628
+ B3=-163064686
+ B4=12487967100
+ R25=47000
+ T={1+TOL/100} 
+ CTH=0.0075 GTH0=0.0025 GTH1=0 TK=273.15 
.ENDS 
*$
*
*
* Model for B57259V5473H360 : 
* --------------------------
.SUBCKT B57259V5473H360 1 2  PARAMS: TOL=0
X1 1 2 NTC Params: 
+ B0=-14.4948
+ B1=3773.1104
+ B2=569785.628
+ B3=-163064686
+ B4=12487967100
+ R25=47000
+ T={1+TOL/100} 
+ CTH=0.0075 GTH0=0.0025 GTH1=0 TK=273.15 
.ENDS 
*$
*
*
* Model for B57259V5473J360 : 
* --------------------------
.SUBCKT B57259V5473J360 1 2  PARAMS: TOL=0
X1 1 2 NTC Params: 
+ B0=-14.4948
+ B1=3773.1104
+ B2=569785.628
+ B3=-163064686
+ B4=12487967100
+ R25=47000
+ T={1+TOL/100} 
+ CTH=0.0075 GTH0=0.0025 GTH1=0 TK=273.15 
.ENDS 
*$
*
*
* Model for B57301V2103H060 : 
* --------------------------
.SUBCKT B57301V2103H060 1 2  PARAMS: TOL=0
X1 1 2 NTC Params: 
+ B0=-13.0506
+ B1=3963.28
+ B2=92195.95
+ B3=-44369438.6
+ B4=3118693780
+ R25=10000
+ T={1+TOL/100} 
+ CTH=0.012 GTH0=0.003 GTH1=0 TK=273.15 
.ENDS 
*$
*
*
* Model for B57301V2103J060 : 
* --------------------------
.SUBCKT B57301V2103J060 1 2  PARAMS: TOL=0
X1 1 2 NTC Params: 
+ B0=-13.0506
+ B1=3963.28
+ B2=92195.95
+ B3=-44369438.6
+ B4=3118693780
+ R25=10000
+ T={1+TOL/100} 
+ CTH=0.012 GTH0=0.003 GTH1=0 TK=273.15 
.ENDS 
*$
*
*
* Model for B57301V2103J062 : 
* --------------------------
.SUBCKT B57301V2103J062 1 2  PARAMS: TOL=0
X1 1 2 NTC Params: 
+ B0=-13.0506
+ B1=3963.28
+ B2=92195.95
+ B3=-44369438.6
+ B4=3118693780
+ R25=10000
+ T={1+TOL/100} 
+ CTH=0.012 GTH0=0.003 GTH1=0 TK=273.15 
.ENDS 
*$
*
*
* Model for B57301V2472H060 : 
* --------------------------
.SUBCKT B57301V2472H060 1 2  PARAMS: TOL=0
X1 1 2 NTC Params: 
+ B0=-13.0506
+ B1=3963.28
+ B2=92195.95
+ B3=-44369438.6
+ B4=3118693780
+ R25=4700
+ T={1+TOL/100} 
+ CTH=0.012 GTH0=0.003 GTH1=0 TK=273.15 
.ENDS 
*$
*
*
* Model for B57301V2472J060 : 
* --------------------------
.SUBCKT B57301V2472J060 1 2  PARAMS: TOL=0
X1 1 2 NTC Params: 
+ B0=-13.0506
+ B1=3963.28
+ B2=92195.95
+ B3=-44369438.6
+ B4=3118693780
+ R25=4700
+ T={1+TOL/100} 
+ CTH=0.012 GTH0=0.003 GTH1=0 TK=273.15 
.ENDS 
*$
*
*
* Model for B57321V2102H060 : 
* --------------------------
.SUBCKT B57321V2102H060 1 2  PARAMS: TOL=0
X1 1 2 NTC Params: 
+ B0=-14.5737
+ B1=4734.87
+ B2=-99567.95
+ B3=-5091275.72
+ B4=40082796.5
+ R25=1000
+ T={1+TOL/100} 
+ CTH=0.012 GTH0=0.003 GTH1=0 TK=273.15 
.ENDS 
*$
*
*
* Model for B57321V2102J060 : 
* --------------------------
.SUBCKT B57321V2102J060 1 2  PARAMS: TOL=0
X1 1 2 NTC Params: 
+ B0=-14.5737
+ B1=4734.87
+ B2=-99567.95
+ B3=-5091275.72
+ B4=40082796.5
+ R25=1000
+ T={1+TOL/100} 
+ CTH=0.012 GTH0=0.003 GTH1=0 TK=273.15 
.ENDS 
*$
*
*
* Model for B57321V2103H060 : 
* --------------------------
.SUBCKT B57321V2103H060 1 2  PARAMS: TOL=0
X1 1 2 NTC Params: 
+ B0=-13.0506
+ B1=3963.28
+ B2=92195.95
+ B3=-44369438.6
+ B4=3118693780
+ R25=10000
+ T={1+TOL/100} 
+ CTH=0.012 GTH0=0.003 GTH1=0 TK=273.15 
.ENDS 
*$
*
*
* Model for B57321V2103J060 : 
* --------------------------
.SUBCKT B57321V2103J060 1 2  PARAMS: TOL=0
X1 1 2 NTC Params: 
+ B0=-13.0506
+ B1=3963.28
+ B2=92195.95
+ B3=-44369438.6
+ B4=3118693780
+ R25=10000
+ T={1+TOL/100} 
+ CTH=0.012 GTH0=0.003 GTH1=0 TK=273.15 
.ENDS 
*$
*
*
* Model for B57321V2222H060 : 
* --------------------------
.SUBCKT B57321V2222H060 1 2  PARAMS: TOL=0
X1 1 2 NTC Params: 
+ B0=-14.5737
+ B1=4734.87
+ B2=-99567.95
+ B3=-5091275.72
+ B4=40082796.5
+ R25=2200
+ T={1+TOL/100} 
+ CTH=0.012 GTH0=0.003 GTH1=0 TK=273.15 
.ENDS 
*$
*
*
* Model for B57321V2222J060 : 
* --------------------------
.SUBCKT B57321V2222J060 1 2  PARAMS: TOL=0
X1 1 2 NTC Params: 
+ B0=-14.5737
+ B1=4734.87
+ B2=-99567.95
+ B3=-5091275.72
+ B4=40082796.5
+ R25=2200
+ T={1+TOL/100} 
+ CTH=0.012 GTH0=0.003 GTH1=0 TK=273.15 
.ENDS 
*$
*
*
* Model for B57321V2223H060 : 
* --------------------------
.SUBCKT B57321V2223H060 1 2  PARAMS: TOL=0
X1 1 2 NTC Params: 
+ B0=-14.5737
+ B1=4734.87
+ B2=-99567.95
+ B3=-5091275.72
+ B4=40082796.5
+ R25=22000
+ T={1+TOL/100} 
+ CTH=0.012 GTH0=0.003 GTH1=0 TK=273.15 
.ENDS 
*$
*
*
* Model for B57321V2223J060 : 
* --------------------------
.SUBCKT B57321V2223J060 1 2  PARAMS: TOL=0
X1 1 2 NTC Params: 
+ B0=-14.5737
+ B1=4734.87
+ B2=-99567.95
+ B3=-5091275.72
+ B4=40082796.5
+ R25=22000
+ T={1+TOL/100} 
+ CTH=0.012 GTH0=0.003 GTH1=0 TK=273.15 
.ENDS 
*$
*
*
* Model for B57321V2473H060 : 
* --------------------------
.SUBCKT B57321V2473H060 1 2  PARAMS: TOL=0
X1 1 2 NTC Params: 
+ B0=-14.5737
+ B1=4734.87
+ B2=-99567.95
+ B3=-5091275.72
+ B4=40082796.5
+ R25=47000
+ T={1+TOL/100} 
+ CTH=0.012 GTH0=0.003 GTH1=0 TK=273.15 
.ENDS 
*$
*
*
* Model for B57321V2473J060 : 
* --------------------------
.SUBCKT B57321V2473J060 1 2  PARAMS: TOL=0
X1 1 2 NTC Params: 
+ B0=-14.5737
+ B1=4734.87
+ B2=-99567.95
+ B3=-5091275.72
+ B4=40082796.5
+ R25=47000
+ T={1+TOL/100} 
+ CTH=0.012 GTH0=0.003 GTH1=0 TK=273.15 
.ENDS 
*$
*
*
* Model for B57330V2103F260 : 
* --------------------------
.SUBCKT B57330V2103F260 1 2  PARAMS: TOL=0
X1 1 2 NTC Params: 
+ B0=-12.8079
+ B1=4132.2998
+ B2=-34296.8469
+ B3=-20044636.74
+ B4=712784745.8
+ R25=10000
+ T={1+TOL/100} 
+ CTH=0.012 GTH0=0.003 GTH1=0 TK=273.15 
.ENDS 
*$
*
*
* Model for B57330V2103H260 : 
* --------------------------
.SUBCKT B57330V2103H260 1 2  PARAMS: TOL=0
X1 1 2 NTC Params: 
+ B0=-12.8079
+ B1=4132.2998
+ B2=-34296.8469
+ B3=-20044636.74
+ B4=712784745.8
+ R25=10000
+ T={1+TOL/100} 
+ CTH=0.012 GTH0=0.003 GTH1=0 TK=273.15 
.ENDS 
*$
*
*
* Model for B57330V2103J260 : 
* --------------------------
.SUBCKT B57330V2103J260 1 2  PARAMS: TOL=0
X1 1 2 NTC Params: 
+ B0=-12.8079
+ B1=4132.2998
+ B2=-34296.8469
+ B3=-20044636.74
+ B4=712784745.8
+ R25=10000
+ T={1+TOL/100} 
+ CTH=0.012 GTH0=0.003 GTH1=0 TK=273.15 
.ENDS 
*$
*
*
* Model for B57331V2103J060 : 
* --------------------------
.SUBCKT B57331V2103J060 1 2  PARAMS: TOL=0
X1 1 2 NTC Params: 
+ B0=-12.8079
+ B1=4132.2998
+ B2=-34296.8469
+ B3=-20044636.74
+ B4=712784745.8
+ R25=10000
+ T={1+TOL/100} 
+ CTH=0.012 GTH0=0.003 GTH1=0 TK=273.15 
.ENDS 
*$
*
*
* Model for B57331V2103J070 : 
* --------------------------
.SUBCKT B57331V2103J070 1 2  PARAMS: TOL=0
X1 1 2 NTC Params: 
+ B0=-12.8079
+ B1=4132.2998
+ B2=-34296.8469
+ B3=-20044636.74
+ B4=712784745.8
+ R25=10000
+ T={1+TOL/100} 
+ CTH=0.012 GTH0=0.003 GTH1=0 TK=273.15 
.ENDS 
*$
*
*
* Model for B57332V5103A160 : 
* --------------------------
.SUBCKT B57332V5103A160 1 2  PARAMS: TOL=0
X1 1 2 NTC Params: 
+ B0=-12.8079
+ B1=4132.2998
+ B2=-34296.8469
+ B3=-20044636.74
+ B4=712784745.8
+ R25=10000
+ T={1+TOL/100} 
+ CTH=0.012 GTH0=0.003 GTH1=0 TK=273.15 
.ENDS 
*$
*
*
* Model for B57332V5103D560 : 
* --------------------------
.SUBCKT B57332V5103D560 1 2  PARAMS: TOL=0
X1 1 2 NTC Params: 
+ B0=-12.8079
+ B1=4132.2998
+ B2=-34296.8469
+ B3=-20044636.74
+ B4=712784745.8
+ R25=10000
+ T={1+TOL/100} 
+ CTH=0.012 GTH0=0.003 GTH1=0 TK=273.15 
.ENDS 
*$
*
*
* Model for B57332V5103F360 : 
* --------------------------
.SUBCKT B57332V5103F360 1 2  PARAMS: TOL=0
X1 1 2 NTC Params: 
+ B0=-12.8079
+ B1=4132.2998
+ B2=-34296.8469
+ B3=-20044636.74
+ B4=712784745.8
+ R25=10000
+ T={1+TOL/100} 
+ CTH=0.012 GTH0=0.003 GTH1=0 TK=273.15 
.ENDS 
*$
*
*
* Model for B57332V5103F370 : 
* --------------------------
.SUBCKT B57332V5103F370 1 2  PARAMS: TOL=0
X1 1 2 NTC Params: 
+ B0=-12.8079
+ B1=4132.2998
+ B2=-34296.8469
+ B3=-20044636.74
+ B4=712784745.8
+ R25=10000
+ T={1+TOL/100} 
+ CTH=0.012 GTH0=0.003 GTH1=0 TK=273.15 
.ENDS 
*$
*
*
* Model for B57332V5103H360 : 
* --------------------------
.SUBCKT B57332V5103H360 1 2  PARAMS: TOL=0
X1 1 2 NTC Params: 
+ B0=-12.8079
+ B1=4132.2998
+ B2=-34296.8469
+ B3=-20044636.74
+ B4=712784745.8
+ R25=10000
+ T={1+TOL/100} 
+ CTH=0.012 GTH0=0.003 GTH1=0 TK=273.15 
.ENDS 
*$
*
*
* Model for B57332V5103J360 : 
* --------------------------
.SUBCKT B57332V5103J360 1 2  PARAMS: TOL=0
X1 1 2 NTC Params: 
+ B0=-12.8079
+ B1=4132.2998
+ B2=-34296.8469
+ B3=-20044636.74
+ B4=712784745.8
+ R25=10000
+ T={1+TOL/100} 
+ CTH=0.012 GTH0=0.003 GTH1=0 TK=273.15 
.ENDS 
*$
*
*
* Model for B57333V5103A160 : 
* --------------------------
.SUBCKT B57333V5103A160 1 2  PARAMS: TOL=0
X1 1 2 NTC Params: 
+ B0=-3.5172
+ B1=4073.4961
+ B2=-12072.053
+ B3=-24733194.12
+ B4=1057630358
+ R25=10000
+ T={1+TOL/100} 
+ CTH=0.012 GTH0=0.003 GTH1=0 TK=273.15 
.ENDS 
*$
*
*
* Model for B57333V5103F460 : 
* --------------------------
.SUBCKT B57333V5103F460 1 2  PARAMS: TOL=0
X1 1 2 NTC Params: 
+ B0=-3.5172
+ B1=4073.4961
+ B2=-12072.053
+ B3=-24733194.12
+ B4=1057630358
+ R25=10000
+ T={1+TOL/100} 
+ CTH=0.012 GTH0=0.003 GTH1=0 TK=273.15 
.ENDS 
*$
*
*
* Model for B57334V2103D260 : 
* --------------------------
.SUBCKT B57334V2103D260 1 2  PARAMS: TOL=0
X1 1 2 NTC Params: 
+ B0=-12.8079
+ B1=4132.2998
+ B2=-34296.8469
+ B3=-20044636.74
+ B4=712784745.8
+ R25=10000
+ T={1+TOL/100} 
+ CTH=0.012 GTH0=0.003 GTH1=0 TK=273.15 
.ENDS 
*$
*
*
* Model for B57342V5103H060 : 
* --------------------------
.SUBCKT B57342V5103H060 1 2  PARAMS: TOL=0
X1 1 2 NTC Params: 
+ B0=-13.0506
+ B1=3963.28
+ B2=92195.95
+ B3=-44369438.6
+ B4=3118693780
+ R25=10000
+ T={1+TOL/100} 
+ CTH=0.012 GTH0=0.003 GTH1=0 TK=273.15 
.ENDS 
*$
*
*
* Model for B57342V5103J060 : 
* --------------------------
.SUBCKT B57342V5103J060 1 2  PARAMS: TOL=0
X1 1 2 NTC Params: 
+ B0=-13.0506
+ B1=3963.28
+ B2=92195.95
+ B3=-44369438.6
+ B4=3118693780
+ R25=10000
+ T={1+TOL/100} 
+ CTH=0.012 GTH0=0.003 GTH1=0 TK=273.15 
.ENDS 
*$
*
*
* Model for B57343V5103F360 : 
* --------------------------
.SUBCKT B57343V5103F360 1 2  PARAMS: TOL=0
X1 1 2 NTC Params: 
+ B0=-4.1992
+ B1=4481.7989
+ B2=-150521.692
+ B3=1877102.64
+ B4=1
+ R25=10000
+ T={1+TOL/100} 
+ CTH=0.012 GTH0=0.003 GTH1=0 TK=273.15 
.ENDS 
*$
*
*
* Model for B57343V5103G360 : 
* --------------------------
.SUBCKT B57343V5103G360 1 2  PARAMS: TOL=0
X1 1 2 NTC Params: 
+ B0=-4.1992
+ B1=4481.7989
+ B2=-150521.692
+ B3=1877102.64
+ B4=1
+ R25=10000
+ T={1+TOL/100} 
+ CTH=0.012 GTH0=0.003 GTH1=0 TK=273.15 
.ENDS 
*$
*
*
* Model for B57343V5103H360 : 
* --------------------------
.SUBCKT B57343V5103H360 1 2  PARAMS: TOL=0
X1 1 2 NTC Params: 
+ B0=-4.1992
+ B1=4481.7989
+ B2=-150521.692
+ B3=1877102.64
+ B4=1
+ R25=10000
+ T={1+TOL/100} 
+ CTH=0.012 GTH0=0.003 GTH1=0 TK=273.15 
.ENDS 
*$
*
*
* Model for B57343V5103J360 : 
* --------------------------
.SUBCKT B57343V5103J360 1 2  PARAMS: TOL=0
X1 1 2 NTC Params: 
+ B0=-4.1992
+ B1=4481.7989
+ B2=-150521.692
+ B3=1877102.64
+ B4=1
+ R25=10000
+ T={1+TOL/100} 
+ CTH=0.012 GTH0=0.003 GTH1=0 TK=273.15 
.ENDS 
*$
*
*
* Model for B57350V2104F460 : 
* --------------------------
.SUBCKT B57350V2104F460 1 2  PARAMS: TOL=0
X1 1 2 NTC Params: 
+ B0=-4.7884
+ B1=5549.1414
+ B2=-165609.602
+ B3=-21967160.3
+ B4=3013141980
+ R25=100000
+ T={1+TOL/100} 
+ CTH=0.012 GTH0=0.003 GTH1=0 TK=273.15 
.ENDS 
*$
*
*
* Model for B57350V2104H460 : 
* --------------------------
.SUBCKT B57350V2104H460 1 2  PARAMS: TOL=0
X1 1 2 NTC Params: 
+ B0=-4.7884
+ B1=5549.1414
+ B2=-165609.602
+ B3=-21967160.3
+ B4=3013141980
+ R25=100000
+ T={1+TOL/100} 
+ CTH=0.012 GTH0=0.003 GTH1=0 TK=273.15 
.ENDS 
*$
*
*
* Model for B57350V2104J460 : 
* --------------------------
.SUBCKT B57350V2104J460 1 2  PARAMS: TOL=0
X1 1 2 NTC Params: 
+ B0=-4.7884
+ B1=5549.1414
+ B2=-165609.602
+ B3=-21967160.3
+ B4=3013141980
+ R25=100000
+ T={1+TOL/100} 
+ CTH=0.012 GTH0=0.003 GTH1=0 TK=273.15 
.ENDS 
*$
*
*
* Model for B57351V5103H060 : 
* --------------------------
.SUBCKT B57351V5103H060 1 2  PARAMS: TOL=0
X1 1 2 NTC Params: 
+ B0=-14.5737
+ B1=4734.87
+ B2=-99567.95
+ B3=-5091275.72
+ B4=40082796.5
+ R25=10000
+ T={1+TOL/100} 
+ CTH=0.012 GTH0=0.003 GTH1=0 TK=273.15 
.ENDS 
*$
*
*
* Model for B57351V5103J060 : 
* --------------------------
.SUBCKT B57351V5103J060 1 2  PARAMS: TOL=0
X1 1 2 NTC Params: 
+ B0=-14.5737
+ B1=4734.87
+ B2=-99567.95
+ B3=-5091275.72
+ B4=40082796.5
+ R25=10000
+ T={1+TOL/100} 
+ CTH=0.012 GTH0=0.003 GTH1=0 TK=273.15 
.ENDS 
*$
*
*
* Model for B57351V5103J070 : 
* --------------------------
.SUBCKT B57351V5103J070 1 2  PARAMS: TOL=0
X1 1 2 NTC Params: 
+ B0=-14.5737
+ B1=4734.87
+ B2=-99567.95
+ B3=-5091275.72
+ B4=40082796.5
+ R25=10000
+ T={1+TOL/100} 
+ CTH=0.012 GTH0=0.003 GTH1=0 TK=273.15 
.ENDS 
*$
*
*
* Model for B57351V5223H060 : 
* --------------------------
.SUBCKT B57351V5223H060 1 2  PARAMS: TOL=0
X1 1 2 NTC Params: 
+ B0=-14.5737
+ B1=4734.87
+ B2=-99567.95
+ B3=-5091275.72
+ B4=40082796.5
+ R25=22000
+ T={1+TOL/100} 
+ CTH=0.012 GTH0=0.003 GTH1=0 TK=273.15 
.ENDS 
*$
*
*
* Model for B57351V5223J060 : 
* --------------------------
.SUBCKT B57351V5223J060 1 2  PARAMS: TOL=0
X1 1 2 NTC Params: 
+ B0=-14.5737
+ B1=4734.87
+ B2=-99567.95
+ B3=-5091275.72
+ B4=40082796.5
+ R25=22000
+ T={1+TOL/100} 
+ CTH=0.012 GTH0=0.003 GTH1=0 TK=273.15 
.ENDS 
*$
*
*
* Model for B57352V5103H060 : 
* --------------------------
.SUBCKT B57352V5103H060 1 2  PARAMS: TOL=0
X1 1 2 NTC Params: 
+ B0=-16.471
+ B1=5162.005
+ B2=63919.4571
+ B3=-53047574.22
+ B4=3478532052
+ R25=10000
+ T={1+TOL/100} 
+ CTH=0.012 GTH0=0.003 GTH1=0 TK=273.15 
.ENDS 
*$
*
*
* Model for B57352V5103J060 : 
* --------------------------
.SUBCKT B57352V5103J060 1 2  PARAMS: TOL=0
X1 1 2 NTC Params: 
+ B0=-16.471
+ B1=5162.005
+ B2=63919.4571
+ B3=-53047574.22
+ B4=3478532052
+ R25=10000
+ T={1+TOL/100} 
+ CTH=0.012 GTH0=0.003 GTH1=0 TK=273.15 
.ENDS 
*$
*
*
* Model for B57352V5104A160 : 
* --------------------------
.SUBCKT B57352V5104A160 1 2  PARAMS: TOL=0
X1 1 2 NTC Params: 
+ B0=-16.471
+ B1=5162.005
+ B2=63919.4571
+ B3=-53047574.22
+ B4=3478532052
+ R25=100000
+ T={1+TOL/100} 
+ CTH=0.012 GTH0=0.003 GTH1=0 TK=273.15 
.ENDS 
*$
*
*
* Model for B57352V5104F360 : 
* --------------------------
.SUBCKT B57352V5104F360 1 2  PARAMS: TOL=0
X1 1 2 NTC Params: 
+ B0=-16.471
+ B1=5162.005
+ B2=63919.4571
+ B3=-53047574.22
+ B4=3478532052
+ R25=100000
+ T={1+TOL/100} 
+ CTH=0.012 GTH0=0.003 GTH1=0 TK=273.15 
.ENDS 
*$
*
*
* Model for B57352V5104H060 : 
* --------------------------
.SUBCKT B57352V5104H060 1 2  PARAMS: TOL=0
X1 1 2 NTC Params: 
+ B0=-16.471
+ B1=5162.005
+ B2=63919.4571
+ B3=-53047574.22
+ B4=3478532052
+ R25=100000
+ T={1+TOL/100} 
+ CTH=0.012 GTH0=0.003 GTH1=0 TK=273.15 
.ENDS 
*$
*
*
* Model for B57352V5104H360 : 
* --------------------------
.SUBCKT B57352V5104H360 1 2  PARAMS: TOL=0
X1 1 2 NTC Params: 
+ B0=-16.471
+ B1=5162.005
+ B2=63919.4571
+ B3=-53047574.22
+ B4=3478532052
+ R25=100000
+ T={1+TOL/100} 
+ CTH=0.012 GTH0=0.003 GTH1=0 TK=273.15 
.ENDS 
*$
*
*
* Model for B57352V5104J060 : 
* --------------------------
.SUBCKT B57352V5104J060 1 2  PARAMS: TOL=0
X1 1 2 NTC Params: 
+ B0=-16.471
+ B1=5162.005
+ B2=63919.4571
+ B3=-53047574.22
+ B4=3478532052
+ R25=100000
+ T={1+TOL/100} 
+ CTH=0.012 GTH0=0.003 GTH1=0 TK=273.15 
.ENDS 
*$
*
*
* Model for B57352V5104J360 : 
* --------------------------
.SUBCKT B57352V5104J360 1 2  PARAMS: TOL=0
X1 1 2 NTC Params: 
+ B0=-16.471
+ B1=5162.005
+ B2=63919.4571
+ B3=-53047574.22
+ B4=3478532052
+ R25=100000
+ T={1+TOL/100} 
+ CTH=0.012 GTH0=0.003 GTH1=0 TK=273.15 
.ENDS 
*$
*
*
* Model for B57352V5223H060 : 
* --------------------------
.SUBCKT B57352V5223H060 1 2  PARAMS: TOL=0
X1 1 2 NTC Params: 
+ B0=-16.471
+ B1=5162.005
+ B2=63919.4571
+ B3=-53047574.22
+ B4=3478532052
+ R25=22000
+ T={1+TOL/100} 
+ CTH=0.012 GTH0=0.003 GTH1=0 TK=273.15 
.ENDS 
*$
*
*
* Model for B57352V5223J060 : 
* --------------------------
.SUBCKT B57352V5223J060 1 2  PARAMS: TOL=0
X1 1 2 NTC Params: 
+ B0=-16.471
+ B1=5162.005
+ B2=63919.4571
+ B3=-53047574.22
+ B4=3478532052
+ R25=22000
+ T={1+TOL/100} 
+ CTH=0.012 GTH0=0.003 GTH1=0 TK=273.15 
.ENDS 
*$
*
*
* Model for B57352V5223J070 : 
* --------------------------
.SUBCKT B57352V5223J070 1 2  PARAMS: TOL=0
X1 1 2 NTC Params: 
+ B0=-16.471
+ B1=5162.005
+ B2=63919.4571
+ B3=-53047574.22
+ B4=3478532052
+ R25=22000
+ T={1+TOL/100} 
+ CTH=0.012 GTH0=0.003 GTH1=0 TK=273.15 
.ENDS 
*$
*
*
* Model for B57352V5473H060 : 
* --------------------------
.SUBCKT B57352V5473H060 1 2  PARAMS: TOL=0
X1 1 2 NTC Params: 
+ B0=-16.471
+ B1=5162.005
+ B2=63919.4571
+ B3=-53047574.22
+ B4=3478532052
+ R25=47000
+ T={1+TOL/100} 
+ CTH=0.012 GTH0=0.003 GTH1=0 TK=273.15 
.ENDS 
*$
*
*
* Model for B57352V5473J060 : 
* --------------------------
.SUBCKT B57352V5473J060 1 2  PARAMS: TOL=0
X1 1 2 NTC Params: 
+ B0=-16.471
+ B1=5162.005
+ B2=63919.4571
+ B3=-53047574.22
+ B4=3478532052
+ R25=47000
+ T={1+TOL/100} 
+ CTH=0.012 GTH0=0.003 GTH1=0 TK=273.15 
.ENDS 
*$
*
*
* Model for B57354V5104H160 : 
* --------------------------
.SUBCKT B57354V5104H160 1 2  PARAMS: TOL=0
X1 1 2 NTC Params: 
+ B0=-4.9914
+ B1=5625.2304
+ B2=-171800.28
+ B3=-21443156
+ B4=2994421810
+ R25=100000
+ T={1+TOL/100} 
+ CTH=0.012 GTH0=0.003 GTH1=0 TK=273.15 
.ENDS 
*$
*
*
* Model for B57354V5104J160 : 
* --------------------------
.SUBCKT B57354V5104J160 1 2  PARAMS: TOL=0
X1 1 2 NTC Params: 
+ B0=-4.9914
+ B1=5625.2304
+ B2=-171800.28
+ B3=-21443156
+ B4=2994421810
+ R25=100000
+ T={1+TOL/100} 
+ CTH=0.012 GTH0=0.003 GTH1=0 TK=273.15 
.ENDS 
*$
*
*
* Model for B57355V5104A160 : 
* --------------------------
.SUBCKT B57355V5104A160 1 2  PARAMS: TOL=0
X1 1 2 NTC Params: 
+ B0=-4.7884
+ B1=5549.1414
+ B2=-165609.602
+ B3=-21967160.3
+ B4=3013141980
+ R25=100000
+ T={1+TOL/100} 
+ CTH=0.012 GTH0=0.003 GTH1=0 TK=273.15 
.ENDS 
*$
*
*
* Model for B57355V5104F360 : 
* --------------------------
.SUBCKT B57355V5104F360 1 2  PARAMS: TOL=0
X1 1 2 NTC Params: 
+ B0=-4.7884
+ B1=5549.1414
+ B2=-165609.602
+ B3=-21967160.3
+ B4=3013141980
+ R25=100000
+ T={1+TOL/100} 
+ CTH=0.012 GTH0=0.003 GTH1=0 TK=273.15 
.ENDS 
*$
*
*
* Model for B57355V5104H360 : 
* --------------------------
.SUBCKT B57355V5104H360 1 2  PARAMS: TOL=0
X1 1 2 NTC Params: 
+ B0=-4.7884
+ B1=5549.1414
+ B2=-165609.602
+ B3=-21967160.3
+ B4=3013141980
+ R25=100000
+ T={1+TOL/100} 
+ CTH=0.012 GTH0=0.003 GTH1=0 TK=273.15 
.ENDS 
*$
*
*
* Model for B57355V5104J360 : 
* --------------------------
.SUBCKT B57355V5104J360 1 2  PARAMS: TOL=0
X1 1 2 NTC Params: 
+ B0=-4.7884
+ B1=5549.1414
+ B2=-165609.602
+ B3=-21967160.3
+ B4=3013141980
+ R25=100000
+ T={1+TOL/100} 
+ CTH=0.012 GTH0=0.003 GTH1=0 TK=273.15 
.ENDS 
*$
*
*
* Model for B57357V2473F660 : 
* --------------------------
.SUBCKT B57357V2473F660 1 2  PARAMS: TOL=0
X1 1 2 NTC Params: 
+ B0=-14.4948
+ B1=3773.1104
+ B2=569785.628
+ B3=-163064686
+ B4=12487967100
+ R25=47000
+ T={1+TOL/100} 
+ CTH=0.012 GTH0=0.003 GTH1=0 TK=273.15 
.ENDS 
*$
*
*
* Model for B57357V2473H660 : 
* --------------------------
.SUBCKT B57357V2473H660 1 2  PARAMS: TOL=0
X1 1 2 NTC Params: 
+ B0=-14.4948
+ B1=3773.1104
+ B2=569785.628
+ B3=-163064686
+ B4=12487967100
+ R25=47000
+ T={1+TOL/100} 
+ CTH=0.012 GTH0=0.003 GTH1=0 TK=273.15 
.ENDS 
*$
*
*
* Model for B57357V2473J660 : 
* --------------------------
.SUBCKT B57357V2473J660 1 2  PARAMS: TOL=0
X1 1 2 NTC Params: 
+ B0=-14.4948
+ B1=3773.1104
+ B2=569785.628
+ B3=-163064686
+ B4=12487967100
+ R25=47000
+ T={1+TOL/100} 
+ CTH=0.012 GTH0=0.003 GTH1=0 TK=273.15 
.ENDS 
*$
*
*
* Model for B57358V2104H360 : 
* --------------------------
.SUBCKT B57358V2104H360 1 2  PARAMS: TOL=0
X1 1 2 NTC Params: 
+ B0=-4.9914
+ B1=5625.2304
+ B2=-171800.28
+ B3=-21443156
+ B4=2994421810
+ R25=100000
+ T={1+TOL/100} 
+ CTH=0.012 GTH0=0.003 GTH1=0 TK=273.15 
.ENDS 
*$
*
*
* Model for B57358V2104J360 : 
* --------------------------
.SUBCKT B57358V2104J360 1 2  PARAMS: TOL=0
X1 1 2 NTC Params: 
+ B0=-4.9914
+ B1=5625.2304
+ B2=-171800.28
+ B3=-21443156
+ B4=2994421810
+ R25=100000
+ T={1+TOL/100} 
+ CTH=0.012 GTH0=0.003 GTH1=0 TK=273.15 
.ENDS 
*$
*
*
* Model for B57358V2473H560 : 
* --------------------------
.SUBCKT B57358V2473H560 1 2  PARAMS: TOL=0
X1 1 2 NTC Params: 
+ B0=-5.3716
+ B1=5784.2456
+ B2=-324208.838
+ B3=4800345.09
+ B4=1541987360
+ R25=47000
+ T={1+TOL/100} 
+ CTH=0.012 GTH0=0.003 GTH1=0 TK=273.15 
.ENDS 
*$
*
*
* Model for B57358V2473J560 : 
* --------------------------
.SUBCKT B57358V2473J560 1 2  PARAMS: TOL=0
X1 1 2 NTC Params: 
+ B0=-5.3716
+ B1=5784.2456
+ B2=-324208.838
+ B3=4800345.09
+ B4=1541987360
+ R25=47000
+ T={1+TOL/100} 
+ CTH=0.012 GTH0=0.003 GTH1=0 TK=273.15 
.ENDS 
*$
*
*
* Model for B57359V5473F260 : 
* --------------------------
.SUBCKT B57359V5473F260 1 2  PARAMS: TOL=0
X1 1 2 NTC Params: 
+ B0=-14.4948
+ B1=3773.1104
+ B2=569785.628
+ B3=-163064686
+ B4=12487967100
+ R25=47000
+ T={1+TOL/100} 
+ CTH=0.012 GTH0=0.003 GTH1=0 TK=273.15 
.ENDS 
*$
*
*
* Model for B57359V5473H160 : 
* --------------------------
.SUBCKT B57359V5473H160 1 2  PARAMS: TOL=0
X1 1 2 NTC Params: 
+ B0=-14.4948
+ B1=3773.1104
+ B2=569785.628
+ B3=-163064686
+ B4=12487967100
+ R25=47000
+ T={1+TOL/100} 
+ CTH=0.012 GTH0=0.003 GTH1=0 TK=273.15 
.ENDS 
*$
*
*
* Model for B57359V5473H260 : 
* --------------------------
.SUBCKT B57359V5473H260 1 2  PARAMS: TOL=0
X1 1 2 NTC Params: 
+ B0=-14.4948
+ B1=3773.1104
+ B2=569785.628
+ B3=-163064686
+ B4=12487967100
+ R25=47000
+ T={1+TOL/100} 
+ CTH=0.012 GTH0=0.003 GTH1=0 TK=273.15 
.ENDS 
*$
*
*
* Model for B57359V5473J160 : 
* --------------------------
.SUBCKT B57359V5473J160 1 2  PARAMS: TOL=0
X1 1 2 NTC Params: 
+ B0=-14.4948
+ B1=3773.1104
+ B2=569785.628
+ B3=-163064686
+ B4=12487967100
+ R25=47000
+ T={1+TOL/100} 
+ CTH=0.012 GTH0=0.003 GTH1=0 TK=273.15 
.ENDS 
*$
*
*
* Model for B57359V5473J260 : 
* --------------------------
.SUBCKT B57359V5473J260 1 2  PARAMS: TOL=0
X1 1 2 NTC Params: 
+ B0=-14.4948
+ B1=3773.1104
+ B2=569785.628
+ B3=-163064686
+ B4=12487967100
+ R25=47000
+ T={1+TOL/100} 
+ CTH=0.012 GTH0=0.003 GTH1=0 TK=273.15 
.ENDS 
*$
*
*
* Model for B57371V2103H060 : 
* --------------------------
.SUBCKT B57371V2103H060 1 2  PARAMS: TOL=0
X1 1 2 NTC Params: 
+ B0=-16.471
+ B1=5162.005
+ B2=63919.4571
+ B3=-53047574.22
+ B4=3478532052
+ R25=10000
+ T={1+TOL/100} 
+ CTH=0.012 GTH0=0.003 GTH1=0 TK=273.15 
.ENDS 
*$
*
*
* Model for B57371V2103J060 : 
* --------------------------
.SUBCKT B57371V2103J060 1 2  PARAMS: TOL=0
X1 1 2 NTC Params: 
+ B0=-16.471
+ B1=5162.005
+ B2=63919.4571
+ B3=-53047574.22
+ B4=3478532052
+ R25=10000
+ T={1+TOL/100} 
+ CTH=0.012 GTH0=0.003 GTH1=0 TK=273.15 
.ENDS 
*$
*
*
* Model for B57371V2104H060 : 
* --------------------------
.SUBCKT B57371V2104H060 1 2  PARAMS: TOL=0
X1 1 2 NTC Params: 
+ B0=-16.471
+ B1=5162.005
+ B2=63919.4571
+ B3=-53047574.22
+ B4=3478532052
+ R25=100000
+ T={1+TOL/100} 
+ CTH=0.012 GTH0=0.003 GTH1=0 TK=273.15 
.ENDS 
*$
*
*
* Model for B57371V2104J060 : 
* --------------------------